FoamFile
{
    format      ascii;
    class       volScalarField;
    object      alpha.water;
}
// * * * * * * * * * * * * * * * * * * * * * * * * * * * * * * * * * * * * * //

dimensions      [0 0 0 0 0 0 0];

internalField   uniform 0;

boundaryField
{
    leftWall
    {
        type            zeroGradient;
    }

    rightWall
    {
        type            zeroGradient;
    }

    lowerWall
    {
       type             zeroGradient ;
      //  type           constantAlphaContactAngle;
      //  theta0         92.8 ;
      //  limit          gradient;
      //  value          uniform 0;
    }

    atmosphere
    {
        type            inletOutlet;
        inletValue      uniform 0;
        value           uniform 0;
    }

    defaultFaces
    {
        type            empty;
    }
}

// ************************************************************************* //
